feeders/25_SE001_1/007_transformadores.dss
New Transformer.TRF_1_1111A phases=1 windings=3 buses=[MRT_235761TRF_1_1111A.2 ET1_1111.1.4 ET1_1111.4.2] conns=[Wye Wye Wye] kvs=[13.3367912182804 0.22 0.22] kvas=[25 25 25] %loadloss=1.56 %noloadloss=0.36
New Linecode.LC_MRT_TRF_1_1111A_1 nphases=1 basefreq=60 r1=15000 x1=0 units=km normamps=0
New Linecode.LC_MRT_TRF_1_1111A_2 nphases=2 basefreq=60 r1=15000 x1=0 units=km normamps=0
New Linecode.LC_MRT_TRF_1_1111A_3 nphases=3 basefreq=60 r1=15000 x1=0 units=km normamps=0
New Linecode.LC_MRT_TRF_1_1111A_4 nphases=4 basefreq=60 r1=15000 x1=0 units=km normamps=0
New Line.Resist_MTR_TRF_1_1111A phases=1 bus1=235761.2 bus2= MRT_235761TRF_1_1111A.2 linecode=LC_MRT_TRF_1_1111A_1 length=0.001 units=km
New Reactor.TRF_1_1111A_R phases=1 bus1=ET1_1111.4 R=15 X=0 basefreq=60
New Transformer.TRF_1_1112A phases=3 windings=2 buses=[771081.1.2.3 ET1_1112.1.2.3.4] conns=[Delta Wye] kvs=[23.1 0.38] kvas=[75 75] %loadloss=3.84 %noloadloss=0.966666
New Reactor.TRF_1_1112A_R phases=1 bus1=ET1_1112.4 R=15 X=0 basefreq=60
New Transformer.TRF_1_1113A phases=3 windings=2 buses=[701311.1.2.3 ET1_1113.1.2.3.4] conns=[Delta Wye] kvs=[23.1 0.38] kvas=[75 75] %loadloss=3.84 %noloadloss=0.966666
New Reactor.TRF_1_1113A_R phases=1 bus1=ET1_1113.4 R=15 X=0 basefreq=60
New Transformer.TRF_1_1152A phases=1 windings=3 buses=[MRT_133421TRF_1_1152A.3 ET1_1152.1.4 ET1_1152.4.2] conns=[Wye Wye Wye] kvs=[13.3367912182804 0.22 0.22] kvas=[37.5 37.5 37.5] %loadloss=1.413333 %noloadloss=0.36
New Linecode.LC_MRT_TRF_1_1152A_1 nphases=1 basefreq=60 r1=15000 x1=0 units=km normamps=0
New Linecode.LC_MRT_TRF_1_1152A_2 nphases=2 basefreq=60 r1=15000 x1=0 units=km normamps=0
New Linecode.LC_MRT_TRF_1_1152A_3 nphases=3 basefreq=60 r1=15000 x1=0 units=km normamps=0
New Linecode.LC_MRT_TRF_1_1152A_4 nphases=4 basefreq=60 r1=15000 x1=0 units=km normamps=0
New Line.Resist_MTR_TRF_1_1152A phases=1 bus1=133421.3 bus2= MRT_133421TRF_1_1152A.3 linecode=LC_MRT_TRF_1_1152A_1 length=0.001 units=km
New Reactor.TRF_1_1152A_R phases=1 bus1=ET1_1152.4 R=15 X=0 basefreq=60
New Transformer.TRF_1_1155A phases=1 windings=3 buses=[MRT_29072TRF_1_1155A.1 ET1_1155.1.4 ET1_1155.4.2] conns=[Wye Wye Wye] kvs=[13.3367912182804 0.22 0.22] kvas=[10 10 10] %loadloss=1.95 %noloadloss=0.5
New Linecode.LC_MRT_TRF_1_1155A_1 nphases=1 basefreq=60 r1=15000 x1=0 units=km normamps=0
New Linecode.LC_MRT_TRF_1_1155A_2 nphases=2 basefreq=60 r1=15000 x1=0 units=km normamps=0
New Linecode.LC_MRT_TRF_1_1155A_3 nphases=3 basefreq=60 r1=15000 x1=0 units=km normamps=0
New Linecode.LC_MRT_TRF_1_1155A_4 nphases=4 basefreq=60 r1=15000 x1=0 units=km normamps=0
New Line.Resist_MTR_TRF_1_1155A phases=1 bus1=29072.1 bus2= MRT_29072TRF_1_1155A.1 linecode=LC_MRT_TRF_1_1155A_1 length=0.001 units=km
New Reactor.TRF_1_1155A_R phases=1 bus1=ET1_1155.4 R=15 X=0 basefreq=60
New Transformer.TRF_1_1160A phases=1 windings=3 buses=[MRT_76041TRF_1_1160A.3 ET1_1160.1.4 ET1_1160.4.2] conns=[Wye Wye Wye] kvs=[13.3367912182804 0.22 0.22] kvas=[15 15 15] %loadloss=1.766667 %noloadloss=0.433333
New Linecode.LC_MRT_TRF_1_1160A_1 nphases=1 basefreq=60 r1=15000 x1=0 units=km normamps=0
New Linecode.LC_MRT_TRF_1_1160A_2 nphases=2 basefreq=60 r1=15000 x1=0 units=km normamps=0
New Linecode.LC_MRT_TRF_1_1160A_3 nphases=3 basefreq=60 r1=15000 x1=0 units=km normamps=0
New Linecode.LC_MRT_TRF_1_1160A_4 nphases=4 basefreq=60 r1=15000 x1=0 units=km normamps=0
New Line.Resist_MTR_TRF_1_1160A phases=1 bus1=76041.3 bus2= MRT_76041TRF_1_1160A.3 linecode=LC_MRT_TRF_1_1160A_1 length=0.001 units=km
New Reactor.TRF_1_1160A_R phases=1 bus1=ET1_1160.4 R=15 X=0 basefreq=60
New Transformer.TRF_1_1224A phases=1 windings=3 buses=[MRT_80101TRF_1_1224A.3 ET1_1224.1.4 ET1_1224.4.2] conns=[Wye Wye Wye] kvs=[13.3367912182804 0.22 0.22] kvas=[25 25 25] %loadloss=1.56 %noloadloss=0.36
New Linecode.LC_MRT_TRF_1_1224A_1 nphases=1 basefreq=60 r1=15000 x1=0 units=km normamps=0
New Linecode.LC_MRT_TRF_1_1224A_2 nphases=2 basefreq=60 r1=15000 x1=0 units=km normamps=0
New Linecode.LC_MRT_TRF_1_1224A_3 nphases=3 basefreq=60 r1=15000 x1=0 units=km normamps=0
New Linecode.LC_MRT_TRF_1_1224A_4 nphases=4 basefreq=60 r1=15000 x1=0 units=km normamps=0
New Line.Resist_MTR_TRF_1_1224A phases=1 bus1=80101.3 bus2= MRT_80101TRF_1_1224A.3 linecode=LC_MRT_TRF_1_1224A_1 length=0.001 units=km
New Reactor.TRF_1_1224A_R phases=1 bus1=ET1_1224.4 R=15 X=0 basefreq=60
New Transformer.TRF_1_1225A phases=1 windings=3 buses=[MRT_112461TRF_1_1225A.3 ET1_1225.1.4 ET1_1225.4.2] conns=[Wye Wye Wye] kvs=[13.3367912182804 0.22 0.22] kvas=[15 15 15] %loadloss=1.766667 %noloadloss=0.433333
New Linecode.LC_MRT_TRF_1_1225A_1 nphases=1 basefreq=60 r1=15000 x1=0 units=km normamps=0
New Linecode.LC_MRT_TRF_1_1225A_2 nphases=2 basefreq=60 r1=15000 x1=0 units=km normamps=0
New Linecode.LC_MRT_TRF_1_1225A_3 nphases=3 basefreq=60 r1=15000 x1=0 units=km normamps=0
New Linecode.LC_MRT_TRF_1_1225A_4 nphases=4 basefreq=60 r1=15000 x1=0 units=km normamps=0
New Line.Resist_MTR_TRF_1_1225A phases=1 bus1=112461.3 bus2= MRT_112461TRF_1_1225A.3 linecode=LC_MRT_TRF_1_1225A_1 length=0.001 units=km
New Reactor.TRF_1_1225A_R phases=1 bus1=ET1_1225.4 R=15 X=0 basefreq=60
New Transformer.TRF_1_1226A phases=1 windings=3 buses=[MRT_235881TRF_1_1226A.2 ET1_1226.1.4 ET1_1226.4.2] conns=[Wye Wye Wye] kvs=[13.3367912182804 0.22 0.22] kvas=[10 10 10] %loadloss=1.95 %noloadloss=0.5
New Linecode.LC_MRT_TRF_1_1226A_1 nphases=1 basefreq=60 r1=15000 x1=0 units=km normamps=0
New Linecode.LC_MRT_TRF_1_1226A_2 nphases=2 basefreq=60 r1=15000 x1=0 units=km normamps=0
New Linecode.LC_MRT_TRF_1_1226A_3 nphases=3 basefreq=60 r1=15000 x1=0 units=km normamps=0
New Linecode.LC_MRT_TRF_1_1226A_4 nphases=4 basefreq=60 r1=15000 x1=0 units=km normamps=0
New Line.Resist_MTR_TRF_1_1226A phases=1 bus1=235881.2 bus2= MRT_235881TRF_1_1226A.2 linecode=LC_MRT_TRF_1_1226A_1 length=0.001 units=km
New Reactor.TRF_1_1226A_R phases=1 bus1=ET1_1226.4 R=15 X=0 basefreq=60
New Transformer.TRF_1_1250A phases=1 windings=3 buses=[MRT_134861TRF_1_1250A.3 ET1_1250.1.4 ET1_1250.4.2] conns=[Wye Wye Wye] kvs=[13.3367912182804 0.22 0.22] kvas=[10 10 10] %loadloss=1.95 %noloadloss=0.5
New Linecode.LC_MRT_TRF_1_1250A_1 nphases=1 basefreq=60 r1=15000 x1=0 units=km normamps=0
New Linecode.LC_MRT_TRF_1_1250A_2 nphases=2 basefreq=60 r1=15000 x1=0 units=km normamps=0
New Linecode.LC_MRT_TRF_1_1250A_3 nphases=3 basefreq=60 r1=15000 x1=0 units=km normamps=0
New Linecode.LC_MRT_TRF_1_1250A_4 nphases=4 basefreq=60 r1=15000 x1=0 units=km normamps=0
New Line.Resist_MTR_TRF_1_1250A phases=1 bus1=134861.3 bus2= MRT_134861TRF_1_1250A.3 linecode=LC_MRT_TRF_1_1250A_1 length=0.001 units=km
New Reactor.TRF_1_1250A_R phases=1 bus1=ET1_1250.4 R=15 X=0 basefreq=60
New Transformer.TRF_1_1299A phases=1 windings=3 buses=[MRT_201301TRF_1_1299A.2 ET1_1299.1.4 ET1_1299.4.2] conns=[Wye Wye Wye] kvs=[13.3367912182804 0.22 0.22] kvas=[15 15 15] %loadloss=1.766667 %noloadloss=0.433333
New Linecode.LC_MRT_TRF_1_1299A_1 nphases=1 basefreq=60 r1=15000 x1=0 units=km normamps=0
New Linecode.LC_MRT_TRF_1_1299A_2 nphases=2 basefreq=60 r1=15000 x1=0 units=km normamps=0
New Linecode.LC_MRT_TRF_1_1299A_3 nphases=3 basefreq=60 r1=15000 x1=0 units=km normamps=0
New Linecode.LC_MRT_TRF_1_1299A_4 nphases=4 basefreq=60 r1=15000 x1=0 units=km normamps=0
New Line.Resist_MTR_TRF_1_1299A phases=1 bus1=201301.2 bus2= MRT_201301TRF_1_1299A.2 linecode=LC_MRT_TRF_1_1299A_1 length=0.001 units=km
New Reactor.TRF_1_1299A_R phases=1 bus1=ET1_1299.4 R=15 X=0 basefreq=60
New Transformer.TRF_1_1317A phases=1 windings=3 buses=[MRT_254811TRF_1_1317A.1 ET1_1317.1.4 ET1_1317.4.2] conns=[Wye Wye Wye] kvs=[13.3367912182804 0.22 0.22] kvas=[15 15 15] %loadloss=1.766667 %noloadloss=0.433333
New Linecode.LC_MRT_TRF_1_1317A_1 nphases=1 basefreq=60 r1=15000 x1=0 units=km normamps=0
New Linecode.LC_MRT_TRF_1_1317A_2 nphases=2 basefreq=60 r1=15000 x1=0 units=km normamps=0
New Linecode.LC_MRT_TRF_1_1317A_3 nphases=3 basefreq=60 r1=15000 x1=0 units=km normamps=0
New Linecode.LC_MRT_TRF_1_1317A_4 nphases=4 basefreq=60 r1=15000 x1=0 units=km normamps=0
New Line.Resist_MTR_TRF_1_1317A phases=1 bus1=254811.1 bus2= MRT_254811TRF_1_1317A.1 linecode=LC_MRT_TRF_1_1317A_1 length=0.001 units=km
New Reactor.TRF_1_1317A_R phases=1 bus1=ET1_1317.4 R=15 X=0 basefreq=60
New Transformer.TRF_1_14A phases=3 windings=2 buses=[148191.1.2.3 ET1_14.1.2.3.4] conns=[Delta Wye] kvs=[23.1 0.38] kvas=[150 150] %loadloss=1.393334 %noloadloss=0.346666
New Reactor.TRF_1_14A_R phases=1 bus1=ET1_14.4 R=15 X=0 basefreq=60
New Transformer.TRF_1_1452A phases=3 windings=2 buses=[342911.1.2.3 ET1_1452.1.2.3.4] conns=[Delta Wye] kvs=[23.1 0.38] kvas=[75 75] %loadloss=3.84 %noloadloss=0.966666
New Reactor.TRF_1_1452A_R phases=1 bus1=ET1_1452.4 R=15 X=0 basefreq=60
New Transformer.TRF_1_1494A phases=3 windings=2 buses=[798541.1.2.3 ET1_1494.1.2.3.4] conns=[Delta Wye] kvs=[23.1 0.38] kvas=[30 30] %loadloss=2.1 %noloadloss=0.533333
New Reactor.TRF_1_1494A_R phases=1 bus1=ET1_1494.4 R=15 X=0 basefreq=60
New Transformer.TRF_1_1495A phases=3 windings=2 buses=[798611.1.2.3 ET1_1495.1.2.3.4] conns=[Delta Wye] kvs=[23.1 0.38] kvas=[30 30] %loadloss=2.1 %noloadloss=0.533333
New Reactor.TRF_1_1495A_R phases=1 bus1=ET1_1495.4 R=15 X=0 basefreq=60
New Transformer.TRF_1_1516A phases=1 windings=3 buses=[MRT_255001TRF_1_1516A.1 ET1_1516.1.4 ET1_1516.4.2] conns=[Wye Wye Wye] kvs=[13.3367912182804 0.22 0.22] kvas=[15 15 15] %loadloss=1.766667 %noloadloss=0.433333
New Linecode.LC_MRT_TRF_1_1516A_1 nphases=1 basefreq=60 r1=15000 x1=0 units=km normamps=0
New Linecode.LC_MRT_TRF_1_1516A_2 nphases=2 basefreq=60 r1=15000 x1=0 units=km normamps=0
New Linecode.LC_MRT_TRF_1_1516A_3 nphases=3 basefreq=60 r1=15000 x1=0 units=km normamps=0
New Linecode.LC_MRT_TRF_1_1516A_4 nphases=4 basefreq=60 r1=15000 x1=0 units=km normamps=0
New Line.Resist_MTR_TRF_1_1516A phases=1 bus1=255001.1 bus2= MRT_255001TRF_1_1516A.1 linecode=LC_MRT_TRF_1_1516A_1 length=0.001 units=km
New Reactor.TRF_1_1516A_R phases=1 bus1=ET1_1516.4 R=15 X=0 basefreq=60
New Transformer.TRF_1_1549A phases=3 windings=2 buses=[29821.1.2.3 ET1_1549.1.2.3.4] conns=[Delta Wye] kvs=[23.1 0.38] kvas=[112.5 112.5] %loadloss=1.475556 %noloadloss=0.377777
New Reactor.TRF_1_1549A_R phases=1 bus1=ET1_1549.4 R=15 X=0 basefreq=60
New Transformer.TRF_1_1557A phases=3 windings=2 buses=[29841.1.2.3 ET1_1557.1.2.3.4] conns=[Delta Wye] kvs=[23.1 0.38] kvas=[75 75] %loadloss=3.84 %noloadloss=0.966666
New Reactor.TRF_1_1557A_R phases=1 bus1=ET1_1557.4 R=15 X=0 basefreq=60
New Transformer.TRF_1_1576A phases=3 windings=2 buses=[110401.1.2.3 ET1_1576.1.2.3.4] conns=[Delta Wye] kvs=[23.1 0.38] kvas=[75 75] %loadloss=3.84 %noloadloss=0.966666
New Reactor.TRF_1_1576A_R phases=1 bus1=ET1_1576.4 R=15 X=0 basefreq=60
New Transformer.TRF_1_1577A phases=3 windings=2 buses=[108661.1.2.3 ET1_1577.1.2.3.4] conns=[Delta Wye] kvs=[23.1 0.38] kvas=[45 45] %loadloss=1.866667 %noloadloss=0.477777
New Reactor.TRF_1_1577A_R phases=1 bus1=ET1_1577.4 R=15 X=0 basefreq=60
New Transformer.TRF_1_1578A phases=1 windings=3 buses=[MRT_132551TRF_1_1578A.2 ET1_1578.1.4 ET1_1578.4.2] conns=[Wye Wye Wye] kvs=[13.3367912182804 0.22 0.22] kvas=[10 10 10] %loadloss=1.95 %noloadloss=0.5
New Linecode.LC_MRT_TRF_1_1578A_1 nphases=1 basefreq=60 r1=15000 x1=0 units=km normamps=0
New Linecode.LC_MRT_TRF_1_1578A_2 nphases=2 basefreq=60 r1=15000 x1=0 units=km normamps=0
New Linecode.LC_MRT_TRF_1_1578A_3 nphases=3 basefreq=60 r1=15000 x1=0 units=km normamps=0
New Linecode.LC_MRT_TRF_1_1578A_4 nphases=4 basefreq=60 r1=15000 x1=0 units=km normamps=0
New Line.Resist_MTR_TRF_1_1578A phases=1 bus1=132551.2 bus2= MRT_132551TRF_1_1578A.2 linecode=LC_MRT_TRF_1_1578A_1 length=0.001 units=km
New Reactor.TRF_1_1578A_R phases=1 bus1=ET1_1578.4 R=15 X=0 basefreq=60
New Transformer.TRF_1_1610A phases=1 windings=3 buses=[MRT_113341TRF_1_1610A.3 ET1_1610.1.4 ET1_1610.4.2] conns=[Wye Wye Wye] kvs=[13.3367912182804 0.22 0.22] kvas=[10 10 10] %loadloss=1.95 %noloadloss=0.5
New Linecode.LC_MRT_TRF_1_1610A_1 nphases=1 basefreq=60 r1=15000 x1=0 units=km normamps=0
New Linecode.LC_MRT_TRF_1_1610A_2 nphases=2 basefreq=60 r1=15000 x1=0 units=km normamps=0
New Linecode.LC_MRT_TRF_1_1610A_3 nphases=3 basefreq=60 r1=15000 x1=0 units=km normamps=0
New Linecode.LC_MRT_TRF_1_1610A_4 nphases=4 basefreq=60 r1=15000 x1=0 units=km normamps=0
New Line.Resist_MTR_TRF_1_1610A phases=1 bus1=113341.3 bus2= MRT_113341TRF_1_1610A.3 linecode=LC_MRT_TRF_1_1610A_1 length=0.001 units=km
New Reactor.TRF_1_1610A_R phases=1 bus1=ET1_1610.4 R=15 X=0 basefreq=60
New Transformer.TRF_1_1628A phases=3 windings=2 buses=[29031.1.2.3 ET1_1628.1.2.3.4] conns=[Delta Wye] kvs=[23.1 0.38] kvas=[112.5 112.5] %loadloss=1.475556 %noloadloss=0.377777
New Reactor.TRF_1_1628A_R phases=1 bus1=ET1_1628.4 R=15 X=0 basefreq=60
New Transformer.TRF_1_1666A phases=1 windings=3 buses=[MRT_789711TRF_1_1666A.3 ET1_1666.1.4 ET1_1666.4.2] conns=[Wye Wye Wye] kvs=[13.3367912182804 0.22 0.22] kvas=[15 15 15] %loadloss=1.766667 %noloadloss=0.433333
New Linecode.LC_MRT_TRF_1_1666A_1 nphases=1 basefreq=60 r1=15000 x1=0 units=km normamps=0
New Linecode.LC_MRT_TRF_1_1666A_2 nphases=2 basefreq=60 r1=15000 x1=0 units=km normamps=0
New Linecode.LC_MRT_TRF_1_1666A_3 nphases=3 basefreq=60 r1=15000 x1=0 units=km normamps=0
New Linecode.LC_MRT_TRF_1_1666A_4 nphases=4 basefreq=60 r1=15000 x1=0 units=km normamps=0
New Line.Resist_MTR_TRF_1_1666A phases=1 bus1=789711.3 bus2= MRT_789711TRF_1_1666A.3 linecode=LC_MRT_TRF_1_1666A_1 length=0.001 units=km
New Reactor.TRF_1_1666A_R phases=1 bus1=ET1_1666.4 R=15 X=0 basefreq=60
New Transformer.TRF_1_1671A phases=1 windings=3 buses=[MRT_80211TRF_1_1671A.3 ET1_1671.1.4 ET1_1671.4.2] conns=[Wye Wye Wye] kvs=[13.3367912182804 0.22 0.22] kvas=[10 10 10] %loadloss=1.95 %noloadloss=0.5
New Linecode.LC_MRT_TRF_1_1671A_1 nphases=1 basefreq=60 r1=15000 x1=0 units=km normamps=0
New Linecode.LC_MRT_TRF_1_1671A_2 nphases=2 basefreq=60 r1=15000 x1=0 units=km normamps=0
New Linecode.LC_MRT_TRF_1_1671A_3 nphases=3 basefreq=60 r1=15000 x1=0 units=km normamps=0
New Linecode.LC_MRT_TRF_1_1671A_4 nphases=4 basefreq=60 r1=15000 x1=0 units=km normamps=0
New Line.Resist_MTR_TRF_1_1671A phases=1 bus1=80211.3 bus2= MRT_80211TRF_1_1671A.3 linecode=LC_MRT_TRF_1_1671A_1 length=0.001 units=km
New Reactor.TRF_1_1671A_R phases=1 bus1=ET1_1671.4 R=15 X=0 basefreq=60
New Transformer.TRF_1_1677A phases=1 windings=3 buses=[MRT_135901TRF_1_1677A.3 ET1_1677.1.4 ET1_1677.4.2] conns=[Wye Wye Wye] kvs=[13.3367912182804 0.22 0.22] kvas=[10 10 10] %loadloss=1.95 %noloadloss=0.5
New Linecode.LC_MRT_TRF_1_1677A_1 nphases=1 basefreq=60 r1=15000 x1=0 units=km normamps=0
New Linecode.LC_MRT_TRF_1_1677A_2 nphases=2 basefreq=60 r1=15000 x1=0 units=km normamps=0
New Linecode.LC_MRT_TRF_1_1677A_3 nphases=3 basefreq=60 r1=15000 x1=0 units=km normamps=0
New Linecode.LC_MRT_TRF_1_1677A_4 nphases=4 basefreq=60 r1=15000 x1=0 units=km normamps=0
New Line.Resist_MTR_TRF_1_1677A phases=1 bus1=135901.3 bus2= MRT_135901TRF_1_1677A.3 linecode=LC_MRT_TRF_1_1677A_1 length=0.001 units=km
New Reactor.TRF_1_1677A_R phases=1 bus1=ET1_1677.4 R=15 X=0 basefreq=60
New Transformer.TRF_1_1717A phases=1 windings=3 buses=[MRT_91191TRF_1_1717A.3 ET1_1717.1.4 ET1_1717.4.2] conns=[Wye Wye Wye] kvs=[13.3367912182804 0.22 0.22] kvas=[25 25 25] %loadloss=1.56 %noloadloss=0.36
New Linecode.LC_MRT_TRF_1_1717A_1 nphases=1 basefreq=60 r1=15000 x1=0 units=km normamps=0
New Linecode.LC_MRT_TRF_1_1717A_2 nphases=2 basefreq=60 r1=15000 x1=0 units=km normamps=0
New Linecode.LC_MRT_TRF_1_1717A_3 nphases=3 basefreq=60 r1=15000 x1=0 units=km normamps=0
New Linecode.LC_MRT_TRF_1_1717A_4 nphases=4 basefreq=60 r1=15000 x1=0 units=km normamps=0
New Line.Resist_MTR_TRF_1_1717A phases=1 bus1=91191.3 bus2= MRT_91191TRF_1_1717A.3 linecode=LC_MRT_TRF_1_1717A_1 length=0.001 units=km
New Reactor.TRF_1_1717A_R phases=1 bus1=ET1_1717.4 R=15 X=0 basefreq=60
New Transformer.TRF_1_172A phases=1 windings=3 buses=[111031.3.1 ET1_172.1.4 ET1_172.4.2] conns=[Delta Wye Wye] kvs=[23.1 0.22 0.22] kvas=[10 10 10] %loadloss=1.15 %noloadloss=0.4
New Reactor.TRF_1_172A_R phases=1 bus1=ET1_172.4 R=15 X=0 basefreq=60
New Transformer.TRF_1_173A phases=3 windings=2 buses=[12271.1.2.3 ET1_173.1.2.3.4] conns=[Delta Wye] kvs=[23.1 0.38] kvas=[15 15] %loadloss=2.5 %noloadloss=0.633333
New Reactor.TRF_1_173A_R phases=1 bus1=ET1_173.4 R=15 X=0 basefreq=60
New Transformer.TRF_1_1740A phases=3 windings=2 buses=[798851.1.2.3 ET1_1740.1.2.3.4] conns=[Delta Wye] kvs=[23.1 0.38] kvas=[45 45] %loadloss=1.866667 %noloadloss=0.477777
New Reactor.TRF_1_1740A_R phases=1 bus1=ET1_1740.4 R=15 X=0 basefreq=60
New Transformer.TRF_1_1749A phases=3 windings=2 buses=[741601.1.2.3 ET1_1749.1.2.3.4] conns=[Delta Wye] kvs=[23.1 0.38] kvas=[45 45] %loadloss=1.866667 %noloadloss=0.477777
New Reactor.TRF_1_1749A_R phases=1 bus1=ET1_1749.4 R=15 X=0 basefreq=60
New Transformer.TRF_1_1852A phases=1 windings=3 buses=[MRT_347691TRF_1_1852A.3 ET1_1852.1.4 ET1_1852.4.2] conns=[Wye Wye Wye] kvs=[13.3367912182804 0.22 0.22] kvas=[10 10 10] %loadloss=1.95 %noloadloss=0.5
New Linecode.LC_MRT_TRF_1_1852A_1 nphases=1 basefreq=60 r1=15000 x1=0 units=km normamps=0
New Linecode.LC_MRT_TRF_1_1852A_2 nphases=2 basefreq=60 r1=15000 x1=0 units=km normamps=0
New Linecode.LC_MRT_TRF_1_1852A_3 nphases=3 basefreq=60 r1=15000 x1=0 units=km normamps=0
New Linecode.LC_MRT_TRF_1_1852A_4 nphases=4 basefreq=60 r1=15000 x1=0 units=km normamps=0
New Line.Resist_MTR_TRF_1_1852A phases=1 bus1=347691.3 bus2= MRT_347691TRF_1_1852A.3 linecode=LC_MRT_TRF_1_1852A_1 length=0.001 units=km
New Reactor.TRF_1_1852A_R phases=1 bus1=ET1_1852.4 R=15 X=0 basefreq=60
New Transformer.TRF_1_1898A phases=1 windings=3 buses=[MRT_135021TRF_1_1898A.3 ET1_1898.1.4 ET1_1898.4.2] conns=[Wye Wye Wye] kvs=[13.3367912182804 0.22 0.22] kvas=[10 10 10] %loadloss=1.95 %noloadloss=0.5
New Linecode.LC_MRT_TRF_1_1898A_1 nphases=1 basefreq=60 r1=15000 x1=0 units=km normamps=0
New Linecode.LC_MRT_TRF_1_1898A_2 nphases=2 basefreq=60 r1=15000 x1=0 units=km normamps=0
New Linecode.LC_MRT_TRF_1_1898A_3 nphases=3 basefreq=60 r1=15000 x1=0 units=km normamps=0
New Linecode.LC_MRT_TRF_1_1898A_4 nphases=4 basefreq=60 r1=15000 x1=0 units=km normamps=0
New Line.Resist_MTR_TRF_1_1898A phases=1 bus1=135021.3 bus2= MRT_135021TRF_1_1898A.3 linecode=LC_MRT_TRF_1_1898A_1 length=0.001 units=km
New Reactor.TRF_1_1898A_R phases=1 bus1=ET1_1898.4 R=15 X=0 basefreq=60
New Transformer.TRF_1_1906A phases=1 windings=3 buses=[MRT_79251TRF_1_1906A.3 ET1_1906.1.4 ET1_1906.4.2] conns=[Wye Wye Wye] kvs=[13.3367912182804 0.22 0.22] kvas=[10 10 10] %loadloss=1.95 %noloadloss=0.5
New Linecode.LC_MRT_TRF_1_1906A_1 nphases=1 basefreq=60 r1=15000 x1=0 units=km normamps=0
New Linecode.LC_MRT_TRF_1_1906A_2 nphases=2 basefreq=60 r1=15000 x1=0 units=km normamps=0
New Linecode.LC_MRT_TRF_1_1906A_3 nphases=3 basefreq=60 r1=15000 x1=0 units=km normamps=0
New Linecode.LC_MRT_TRF_1_1906A_4 nphases=4 basefreq=60 r1=15000 x1=0 units=km normamps=0
New Line.Resist_MTR_TRF_1_1906A phases=1 bus1=79251.3 bus2= MRT_79251TRF_1_1906A.3 linecode=LC_MRT_TRF_1_1906A_1 length=0.001 units=km
New Reactor.TRF_1_1906A_R phases=1 bus1=ET1_1906.4 R=15 X=0 basefreq=60
New Transformer.TRF_1_1912A phases=3 windings=2 buses=[269931.1.2.3 ET1_1912.1.2.3.4] conns=[Delta Wye] kvs=[23.1 0.38] kvas=[30 30] %loadloss=2.1 %noloadloss=0.533333
New Reactor.TRF_1_1912A_R phases=1 bus1=ET1_1912.4 R=15 X=0 basefreq=60
New Transformer.TRF_1_1913A phases=1 windings=3 buses=[MRT_270791TRF_1_1913A.2 ET1_1913.1.4 ET1_1913.4.2] conns=[Wye Wye Wye] kvs=[13.3367912182804 0.22 0.22] kvas=[15 15 15] %loadloss=1.766667 %noloadloss=0.433333
New Linecode.LC_MRT_TRF_1_1913A_1 nphases=1 basefreq=60 r1=15000 x1=0 units=km normamps=0
New Linecode.LC_MRT_TRF_1_1913A_2 nphases=2 basefreq=60 r1=15000 x1=0 units=km normamps=0
New Linecode.LC_MRT_TRF_1_1913A_3 nphases=3 basefreq=60 r1=15000 x1=0 units=km normamps=0
New Linecode.LC_MRT_TRF_1_1913A_4 nphases=4 basefreq=60 r1=15000 x1=0 units=km normamps=0
New Line.Resist_MTR_TRF_1_1913A phases=1 bus1=270791.2 bus2= MRT_270791TRF_1_1913A.2 linecode=LC_MRT_TRF_1_1913A_1 length=0.001 units=km
New Reactor.TRF_1_1913A_R phases=1 bus1=ET1_1913.4 R=15 X=0 basefreq=60
New Transformer.TRF_1_1914A phases=1 windings=3 buses=[MRT_79401TRF_1_1914A.3 ET1_1914.1.4 ET1_1914.4.2] conns=[Wye Wye Wye] kvs=[13.3367912182804 0.22 0.22] kvas=[5 5 5] %loadloss=2.1 %noloadloss=0.7
New Linecode.LC_MRT_TRF_1_1914A_1 nphases=1 basefreq=60 r1=15000 x1=0 units=km normamps=0
New Linecode.LC_MRT_TRF_1_1914A_2 nphases=2 basefreq=60 r1=15000 x1=0 units=km normamps=0
New Linecode.LC_MRT_TRF_1_1914A_3 nphases=3 basefreq=60 r1=15000 x1=0 units=km normamps=0
New Linecode.LC_MRT_TRF_1_1914A_4 nphases=4 basefreq=60 r1=15000 x1=0 units=km normamps=0
New Line.Resist_MTR_TRF_1_1914A phases=1 bus1=79401.3 bus2= MRT_79401TRF_1_1914A.3 linecode=LC_MRT_TRF_1_1914A_1 length=0.001 units=km
New Reactor.TRF_1_1914A_R phases=1 bus1=ET1_1914.4 R=15 X=0 basefreq=60
New Transformer.TRF_1_1915A phases=1 windings=3 buses=[MRT_102371TRF_1_1915A.3 ET1_1915.1.4 ET1_1915.4.2] conns=[Wye Wye Wye] kvs=[13.3367912182804 0.22 0.22] kvas=[5 5 5] %loadloss=2.1 %noloadloss=0.7
New Linecode.LC_MRT_TRF_1_1915A_1 nphases=1 basefreq=60 r1=15000 x1=0 units=km normamps=0
New Linecode.LC_MRT_TRF_1_1915A_2 nphases=2 basefreq=60 r1=15000 x1=0 units=km normamps=0
New Linecode.LC_MRT_TRF_1_1915A_3 nphases=3 basefreq=60 r1=15000 x1=0 units=km normamps=0
New Linecode.LC_MRT_TRF_1_1915A_4 nphases=4 basefreq=60 r1=15000 x1=0 units=km normamps=0
New Line.Resist_MTR_TRF_1_1915A phases=1 bus1=102371.3 bus2= MRT_102371TRF_1_1915A.3 linecode=LC_MRT_TRF_1_1915A_1 length=0.001 units=km
New Reactor.TRF_1_1915A_R phases=1 bus1=ET1_1915.4 R=15 X=0 basefreq=60
New Transformer.TRF_1_1919A phases=1 windings=3 buses=[MRT_78751TRF_1_1919A.3 ET1_1919.1.4 ET1_1919.4.2] conns=[Wye Wye Wye] kvs=[13.3367912182804 0.22 0.22] kvas=[5 5 5] %loadloss=2.1 %noloadloss=0.7
New Linecode.LC_MRT_TRF_1_1919A_1 nphases=1 basefreq=60 r1=15000 x1=0 units=km normamps=0
New Linecode.LC_MRT_TRF_1_1919A_2 nphases=2 basefreq=60 r1=15000 x1=0 units=km normamps=0
New Linecode.LC_MRT_TRF_1_1919A_3 nphases=3 basefreq=60 r1=15000 x1=0 units=km normamps=0
New Linecode.LC_MRT_TRF_1_1919A_4 nphases=4 basefreq=60 r1=15000 x1=0 units=km normamps=0
New Line.Resist_MTR_TRF_1_1919A phases=1 bus1=78751.3 bus2= MRT_78751TRF_1_1919A.3 linecode=LC_MRT_TRF_1_1919A_1 length=0.001 units=km
New Reactor.TRF_1_1919A_R phases=1 bus1=ET1_1919.4 R=15 X=0 basefreq=60
New Transformer.TRF_1_1941A phases=1 windings=3 buses=[MRT_12171TRF_1_1941A.3 ET1_1941.1.4 ET1_1941.4.2] conns=[Wye Wye Wye] kvs=[13.3367912182804 0.22 0.22] kvas=[10 10 10] %loadloss=1.95 %noloadloss=0.5
New Linecode.LC_MRT_TRF_1_1941A_1 nphases=1 basefreq=60 r1=15000 x1=0 units=km normamps=0
New Linecode.LC_MRT_TRF_1_1941A_2 nphases=2 basefreq=60 r1=15000 x1=0 units=km normamps=0
New Linecode.LC_MRT_TRF_1_1941A_3 nphases=3 basefreq=60 r1=15000 x1=0 units=km normamps=0
New Linecode.LC_MRT_TRF_1_1941A_4 nphases=4 basefreq=60 r1=15000 x1=0 units=km normamps=0
New Line.Resist_MTR_TRF_1_1941A phases=1 bus1=12171.3 bus2= MRT_12171TRF_1_1941A.3 linecode=LC_MRT_TRF_1_1941A_1 length=0.001 units=km
New Reactor.TRF_1_1941A_R phases=1 bus1=ET1_1941.4 R=15 X=0 basefreq=60
New Transformer.TRF_1_2040A phases=1 windings=3 buses=[MRT_133391TRF_1_2040A.3 ET1_2040.1.4 ET1_2040.4.2] conns=[Wye Wye Wye] kvs=[13.3367912182804 0.22 0.22] kvas=[15 15 15] %loadloss=1.766667 %noloadloss=0.433333
New Linecode.LC_MRT_TRF_1_2040A_1 nphases=1 basefreq=60 r1=15000 x1=0 units=km normamps=0
New Linecode.LC_MRT_TRF_1_2040A_2 nphases=2 basefreq=60 r1=15000 x1=0 units=km normamps=0
New Linecode.LC_MRT_TRF_1_2040A_3 nphases=3 basefreq=60 r1=15000 x1=0 units=km normamps=0
New Linecode.LC_MRT_TRF_1_2040A_4 nphases=4 basefreq=60 r1=15000 x1=0 units=km normamps=0
New Line.Resist_MTR_TRF_1_2040A phases=1 bus1=133391.3 bus2= MRT_133391TRF_1_2040A.3 linecode=LC_MRT_TRF_1_2040A_1 length=0.001 units=km
New Reactor.TRF_1_2040A_R phases=1 bus1=ET1_2040.4 R=15 X=0 basefreq=60
New Transformer.TRF_1_2082A phases=1 windings=3 buses=[MRT_352511TRF_1_2082A.2 ET1_2082.1.4 ET1_2082.4.2] conns=[Wye Wye Wye] kvs=[13.3367912182804 0.22 0.22] kvas=[15 15 15] %loadloss=1.766667 %noloadloss=0.433333
New Linecode.LC_MRT_TRF_1_2082A_1 nphases=1 basefreq=60 r1=15000 x1=0 units=km normamps=0
New Linecode.LC_MRT_TRF_1_2082A_2 nphases=2 basefreq=60 r1=15000 x1=0 units=km normamps=0
New Linecode.LC_MRT_TRF_1_2082A_3 nphases=3 basefreq=60 r1=15000 x1=0 units=km normamps=0
New Linecode.LC_MRT_TRF_1_2082A_4 nphases=4 basefreq=60 r1=15000 x1=0 units=km normamps=0
New Line.Resist_MTR_TRF_1_2082A phases=1 bus1=352511.2 bus2= MRT_352511TRF_1_2082A.2 linecode=LC_MRT_TRF_1_2082A_1 length=0.001 units=km
New Reactor.TRF_1_2082A_R phases=1 bus1=ET1_2082.4 R=15 X=0 basefreq=60
New Transformer.TRF_1_2179A phases=1 windings=3 buses=[MRT_295111TRF_1_2179A.3 ET1_2179.1.4 ET1_2179.4.2] conns=[Wye Wye Wye] kvs=[13.3367912182804 0.22 0.22] kvas=[15 15 15] %loadloss=1.766667 %noloadloss=0.433333
New Linecode.LC_MRT_TRF_1_2179A_1 nphases=1 basefreq=60 r1=15000 x1=0 units=km normamps=0
New Linecode.LC_MRT_TRF_1_2179A_2 nphases=2 basefreq=60 r1=15000 x1=0 units=km normamps=0
New Linecode.LC_MRT_TRF_1_2179A_3 nphases=3 basefreq=60 r1=15000 x1=0 units=km normamps=0
New Linecode.LC_MRT_TRF_1_2179A_4 nphases=4 basefreq=60 r1=15000 x1=0 units=km normamps=0
New Line.Resist_MTR_TRF_1_2179A phases=1 bus1=295111.3 bus2= MRT_295111TRF_1_2179A.3 linecode=LC_MRT_TRF_1_2179A_1 length=0.001 units=km
New Reactor.TRF_1_2179A_R phases=1 bus1=ET1_2179.4 R=15 X=0 basefreq=60
New Transformer.TRF_1_2256A phases=1 windings=3 buses=[MRT_342501TRF_1_2256A.3 ET1_2256.1.4 ET1_2256.4.2] conns=[Wye Wye Wye] kvs=[13.3367912182804 0.22 0.22] kvas=[10 10 10] %loadloss=1.95 %noloadloss=0.5
New Linecode.LC_MRT_TRF_1_2256A_1 nphases=1 basefreq=60 r1=15000 x1=0 units=km normamps=0
New Linecode.LC_MRT_TRF_1_2256A_2 nphases=2 basefreq=60 r1=15000 x1=0 units=km normamps=0
New Linecode.LC_MRT_TRF_1_2256A_3 nphases=3 basefreq=60 r1=15000 x1=0 units=km normamps=0
New Linecode.LC_MRT_TRF_1_2256A_4 nphases=4 basefreq=60 r1=15000 x1=0 units=km normamps=0
New Line.Resist_MTR_TRF_1_2256A phases=1 bus1=342501.3 bus2= MRT_342501TRF_1_2256A.3 linecode=LC_MRT_TRF_1_2256A_1 length=0.001 units=km
New Reactor.TRF_1_2256A_R phases=1 bus1=ET1_2256.4 R=15 X=0 basefreq=60
New Transformer.TRF_1_2359A phases=1 windings=3 buses=[MRT_295721TRF_1_2359A.3 ET1_2359.1.4 ET1_2359.4.2] conns=[Wye Wye Wye] kvs=[13.3367912182804 0.22 0.22] kvas=[10 10 10] %loadloss=1.95 %noloadloss=0.5
New Linecode.LC_MRT_TRF_1_2359A_1 nphases=1 basefreq=60 r1=15000 x1=0 units=km normamps=0
New Linecode.LC_MRT_TRF_1_2359A_2 nphases=2 basefreq=60 r1=15000 x1=0 units=km normamps=0
New Linecode.LC_MRT_TRF_1_2359A_3 nphases=3 basefreq=60 r1=15000 x1=0 units=km normamps=0
New Linecode.LC_MRT_TRF_1_2359A_4 nphases=4 basefreq=60 r1=15000 x1=0 units=km normamps=0
New Line.Resist_MTR_TRF_1_2359A phases=1 bus1=295721.3 bus2= MRT_295721TRF_1_2359A.3 linecode=LC_MRT_TRF_1_2359A_1 length=0.001 units=km
New Reactor.TRF_1_2359A_R phases=1 bus1=ET1_2359.4 R=15 X=0 basefreq=60
New Transformer.TRF_1_2470A phases=1 windings=3 buses=[MRT_112331TRF_1_2470A.3 ET1_2470.1.4 ET1_2470.4.2] conns=[Wye Wye Wye] kvs=[13.3367912182804 0.22 0.22] kvas=[15 15 15] %loadloss=1.766667 %noloadloss=0.433333
New Linecode.LC_MRT_TRF_1_2470A_1 nphases=1 basefreq=60 r1=15000 x1=0 units=km normamps=0
New Linecode.LC_MRT_TRF_1_2470A_2 nphases=2 basefreq=60 r1=15000 x1=0 units=km normamps=0
New Linecode.LC_MRT_TRF_1_2470A_3 nphases=3 basefreq=60 r1=15000 x1=0 units=km normamps=0
New Linecode.LC_MRT_TRF_1_2470A_4 nphases=4 basefreq=60 r1=15000 x1=0 units=km normamps=0
New Line.Resist_MTR_TRF_1_2470A phases=1 bus1=112331.3 bus2= MRT_112331TRF_1_2470A.3 linecode=LC_MRT_TRF_1_2470A_1 length=0.001 units=km
New Reactor.TRF_1_2470A_R phases=1 bus1=ET1_2470.4 R=15 X=0 basefreq=60
New Transformer.TRF_1_2521A phases=1 windings=3 buses=[MRT_343311TRF_1_2521A.3 ET1_2521.1.4 ET1_2521.4.2] conns=[Wye Wye Wye] kvs=[13.3367912182804 0.22 0.22] kvas=[10 10 10] %loadloss=1.95 %noloadloss=0.5
New Linecode.LC_MRT_TRF_1_2521A_1 nphases=1 basefreq=60 r1=15000 x1=0 units=km normamps=0
New Linecode.LC_MRT_TRF_1_2521A_2 nphases=2 basefreq=60 r1=15000 x1=0 units=km normamps=0
New Linecode.LC_MRT_TRF_1_2521A_3 nphases=3 basefreq=60 r1=15000 x1=0 units=km normamps=0
New Linecode.LC_MRT_TRF_1_2521A_4 nphases=4 basefreq=60 r1=15000 x1=0 units=km normamps=0
New Line.Resist_MTR_TRF_1_2521A phases=1 bus1=343311.3 bus2= MRT_343311TRF_1_2521A.3 linecode=LC_MRT_TRF_1_2521A_1 length=0.001 units=km
New Reactor.TRF_1_2521A_R phases=1 bus1=ET1_2521.4 R=15 X=0 basefreq=60
New Transformer.TRF_1_2522A phases=3 windings=2 buses=[340191.1.2.3 ET1_2522.1.2.3.4] conns=[Delta Wye] kvs=[23.1 0.38] kvas=[15 15] %loadloss=2.5 %noloadloss=0.633333
New Reactor.TRF_1_2522A_R phases=1 bus1=ET1_2522.4 R=15 X=0 basefreq=60
New Transformer.TRF_1_2523A phases=3 windings=2 buses=[28991.1.2.3 ET1_2523.1.2.3.4] conns=[Delta Wye] kvs=[23.1 0.38] kvas=[15 15] %loadloss=2.5 %noloadloss=0.633333
New Reactor.TRF_1_2523A_R phases=1 bus1=ET1_2523.4 R=15 X=0 basefreq=60
New Transformer.TRF_1_2589A phases=1 windings=3 buses=[MRT_109631TRF_1_2589A.3 ET1_2589.1.4 ET1_2589.4.2] conns=[Wye Wye Wye] kvs=[13.3367912182804 0.22 0.22] kvas=[5 5 5] %loadloss=2.1 %noloadloss=0.7
New Linecode.LC_MRT_TRF_1_2589A_1 nphases=1 basefreq=60 r1=15000 x1=0 units=km normamps=0
New Linecode.LC_MRT_TRF_1_2589A_2 nphases=2 basefreq=60 r1=15000 x1=0 units=km normamps=0
New Linecode.LC_MRT_TRF_1_2589A_3 nphases=3 basefreq=60 r1=15000 x1=0 units=km normamps=0
New Linecode.LC_MRT_TRF_1_2589A_4 nphases=4 basefreq=60 r1=15000 x1=0 units=km normamps=0
New Line.Resist_MTR_TRF_1_2589A phases=1 bus1=109631.3 bus2= MRT_109631TRF_1_2589A.3 linecode=LC_MRT_TRF_1_2589A_1 length=0.001 units=km
New Reactor.TRF_1_2589A_R phases=1 bus1=ET1_2589.4 R=15 X=0 basefreq=60
New Transformer.TRF_1_2660A phases=1 windings=3 buses=[MRT_93361TRF_1_2660A.3 ET1_2660.1.4 ET1_2660.4.2] conns=[Wye Wye Wye] kvs=[13.3367912182804 0.22 0.22] kvas=[10 10 10] %loadloss=1.95 %noloadloss=0.5
New Linecode.LC_MRT_TRF_1_2660A_1 nphases=1 basefreq=60 r1=15000 x1=0 units=km normamps=0
New Linecode.LC_MRT_TRF_1_2660A_2 nphases=2 basefreq=60 r1=15000 x1=0 units=km normamps=0
New Linecode.LC_MRT_TRF_1_2660A_3 nphases=3 basefreq=60 r1=15000 x1=0 units=km normamps=0
New Linecode.LC_MRT_TRF_1_2660A_4 nphases=4 basefreq=60 r1=15000 x1=0 units=km normamps=0
New Line.Resist_MTR_TRF_1_2660A phases=1 bus1=93361.3 bus2= MRT_93361TRF_1_2660A.3 linecode=LC_MRT_TRF_1_2660A_1 length=0.001 units=km
New Reactor.TRF_1_2660A_R phases=1 bus1=ET1_2660.4 R=15 X=0 basefreq=60
New Transformer.TRF_1_2723A phases=3 windings=2 buses=[423401.1.2.3 ET1_2723.1.2.3.4] conns=[Delta Wye] kvs=[23.1 0.38] kvas=[15 15] %loadloss=2.5 %noloadloss=0.633333
New Reactor.TRF_1_2723A_R phases=1 bus1=ET1_2723.4 R=15 X=0 basefreq=60
New Transformer.TRF_1_2724A phases=1 windings=2 buses=[MRT_262051TRF_1_2724A.2 ET1_2724.1.4] conns=[Wye Wye] kvs=[13.3367912182804 0.22] kvas=[5 5] %loadloss=2.1 %noloadloss=0.7
New Linecode.LC_MRT_TRF_1_2724A_1 nphases=1 basefreq=60 r1=15000 x1=0 units=km normamps=0
New Linecode.LC_MRT_TRF_1_2724A_2 nphases=2 basefreq=60 r1=15000 x1=0 units=km normamps=0
New Linecode.LC_MRT_TRF_1_2724A_3 nphases=3 basefreq=60 r1=15000 x1=0 units=km normamps=0
New Linecode.LC_MRT_TRF_1_2724A_4 nphases=4 basefreq=60 r1=15000 x1=0 units=km normamps=0
New Line.Resist_MTR_TRF_1_2724A phases=1 bus1=262051.2 bus2= MRT_262051TRF_1_2724A.2 linecode=LC_MRT_TRF_1_2724A_1 length=0.001 units=km
New Reactor.TRF_1_2724A_R phases=1 bus1=ET1_2724.4 R=15 X=0 basefreq=60
New Transformer.TRF_1_2755A phases=1 windings=3 buses=[MRT_113381TRF_1_2755A.3 ET1_2755.1.4 ET1_2755.4.2] conns=[Wye Wye Wye] kvs=[13.3367912182804 0.22 0.22] kvas=[10 10 10] %loadloss=1.95 %noloadloss=0.5
New Linecode.LC_MRT_TRF_1_2755A_1 nphases=1 basefreq=60 r1=15000 x1=0 units=km normamps=0
New Linecode.LC_MRT_TRF_1_2755A_2 nphases=2 basefreq=60 r1=15000 x1=0 units=km normamps=0
New Linecode.LC_MRT_TRF_1_2755A_3 nphases=3 basefreq=60 r1=15000 x1=0 units=km normamps=0
New Linecode.LC_MRT_TRF_1_2755A_4 nphases=4 basefreq=60 r1=15000 x1=0 units=km normamps=0
New Line.Resist_MTR_TRF_1_2755A phases=1 bus1=113381.3 bus2= MRT_113381TRF_1_2755A.3 linecode=LC_MRT_TRF_1_2755A_1 length=0.001 units=km
New Reactor.TRF_1_2755A_R phases=1 bus1=ET1_2755.4 R=15 X=0 basefreq=60
New Transformer.TRF_1_2789A phases=1 windings=3 buses=[MRT_772261TRF_1_2789A.3 ET1_2789.1.4 ET1_2789.4.2] conns=[Wye Wye Wye] kvs=[13.3367912182804 0.22 0.22] kvas=[10 10 10] %loadloss=1.95 %noloadloss=0.5
New Linecode.LC_MRT_TRF_1_2789A_1 nphases=1 basefreq=60 r1=15000 x1=0 units=km normamps=0
New Linecode.LC_MRT_TRF_1_2789A_2 nphases=2 basefreq=60 r1=15000 x1=0 units=km normamps=0
New Linecode.LC_MRT_TRF_1_2789A_3 nphases=3 basefreq=60 r1=15000 x1=0 units=km normamps=0
New Linecode.LC_MRT_TRF_1_2789A_4 nphases=4 basefreq=60 r1=15000 x1=0 units=km normamps=0
New Line.Resist_MTR_TRF_1_2789A phases=1 bus1=772261.3 bus2= MRT_772261TRF_1_2789A.3 linecode=LC_MRT_TRF_1_2789A_1 length=0.001 units=km
New Reactor.TRF_1_2789A_R phases=1 bus1=ET1_2789.4 R=15 X=0 basefreq=60
New Transformer.TRF_1_2867A phases=1 windings=3 buses=[MRT_292531TRF_1_2867A.1 ET1_2867.1.4 ET1_2867.4.2] conns=[Wye Wye Wye] kvs=[13.3367912182804 0.22 0.22] kvas=[25 25 25] %loadloss=1.56 %noloadloss=0.36
New Linecode.LC_MRT_TRF_1_2867A_1 nphases=1 basefreq=60 r1=15000 x1=0 units=km normamps=0
New Linecode.LC_MRT_TRF_1_2867A_2 nphases=2 basefreq=60 r1=15000 x1=0 units=km normamps=0
New Linecode.LC_MRT_TRF_1_2867A_3 nphases=3 basefreq=60 r1=15000 x1=0 units=km normamps=0
New Linecode.LC_MRT_TRF_1_2867A_4 nphases=4 basefreq=60 r1=15000 x1=0 units=km normamps=0
New Line.Resist_MTR_TRF_1_2867A phases=1 bus1=292531.1 bus2= MRT_292531TRF_1_2867A.1 linecode=LC_MRT_TRF_1_2867A_1 length=0.001 units=km
New Reactor.TRF_1_2867A_R phases=1 bus1=ET1_2867.4 R=15 X=0 basefreq=60
New Transformer.TRF_1_2892A phases=3 windings=2 buses=[320492.1.2.3 ET1_2892.1.2.3.4] conns=[Delta Wye] kvs=[23.1 0.38] kvas=[45 45] %loadloss=1.866667 %noloadloss=0.477777
New Reactor.TRF_1_2892A_R phases=1 bus1=ET1_2892.4 R=15 X=0 basefreq=60
New Transformer.TRF_1_2895A phases=3 windings=2 buses=[29811.1.2.3 ET1_2895.1.2.3.4] conns=[Delta Wye] kvs=[23.1 0.38] kvas=[75 75] %loadloss=3.84 %noloadloss=0.966666
New Reactor.TRF_1_2895A_R phases=1 bus1=ET1_2895.4 R=15 X=0 basefreq=60
New Transformer.TRF_1_2955A phases=1 windings=3 buses=[MRT_801771TRF_1_2955A.2 ET1_2955.1.4 ET1_2955.4.2] conns=[Wye Wye Wye] kvs=[13.3367912182804 0.22 0.22] kvas=[10 10 10] %loadloss=1.95 %noloadloss=0.5
New Linecode.LC_MRT_TRF_1_2955A_1 nphases=1 basefreq=60 r1=15000 x1=0 units=km normamps=0
New Linecode.LC_MRT_TRF_1_2955A_2 nphases=2 basefreq=60 r1=15000 x1=0 units=km normamps=0
New Linecode.LC_MRT_TRF_1_2955A_3 nphases=3 basefreq=60 r1=15000 x1=0 units=km normamps=0
New Linecode.LC_MRT_TRF_1_2955A_4 nphases=4 basefreq=60 r1=15000 x1=0 units=km normamps=0
New Line.Resist_MTR_TRF_1_2955A phases=1 bus1=801771.2 bus2= MRT_801771TRF_1_2955A.2 linecode=LC_MRT_TRF_1_2955A_1 length=0.001 units=km
New Reactor.TRF_1_2955A_R phases=1 bus1=ET1_2955.4 R=15 X=0 basefreq=60
New Transformer.TRF_1_2972A phases=1 windings=3 buses=[MRT_610371TRF_1_2972A.3 ET1_2972.1.4 ET1_2972.4.2] conns=[Wye Wye Wye] kvs=[13.3367912182804 0.22 0.22] kvas=[37.5 37.5 37.5] %loadloss=1.413333 %noloadloss=0.36
New Linecode.LC_MRT_TRF_1_2972A_1 nphases=1 basefreq=60 r1=15000 x1=0 units=km normamps=0
New Linecode.LC_MRT_TRF_1_2972A_2 nphases=2 basefreq=60 r1=15000 x1=0 units=km normamps=0
New Linecode.LC_MRT_TRF_1_2972A_3 nphases=3 basefreq=60 r1=15000 x1=0 units=km normamps=0
New Linecode.LC_MRT_TRF_1_2972A_4 nphases=4 basefreq=60 r1=15000 x1=0 units=km normamps=0
New Line.Resist_MTR_TRF_1_2972A phases=1 bus1=610371.3 bus2= MRT_610371TRF_1_2972A.3 linecode=LC_MRT_TRF_1_2972A_1 length=0.001 units=km
New Reactor.TRF_1_2972A_R phases=1 bus1=ET1_2972.4 R=15 X=0 basefreq=60
New Transformer.TRF_1_3017A phases=1 windings=3 buses=[MRT_477231TRF_1_3017A.3 ET1_3017.1.4 ET1_3017.4.2] conns=[Wye Wye Wye] kvs=[13.3367912182804 0.22 0.22] kvas=[25 25 25] %loadloss=1.56 %noloadloss=0.36
New Linecode.LC_MRT_TRF_1_3017A_1 nphases=1 basefreq=60 r1=15000 x1=0 units=km normamps=0
New Linecode.LC_MRT_TRF_1_3017A_2 nphases=2 basefreq=60 r1=15000 x1=0 units=km normamps=0
New Linecode.LC_MRT_TRF_1_3017A_3 nphases=3 basefreq=60 r1=15000 x1=0 units=km normamps=0
New Linecode.LC_MRT_TRF_1_3017A_4 nphases=4 basefreq=60 r1=15000 x1=0 units=km normamps=0
New Line.Resist_MTR_TRF_1_3017A phases=1 bus1=477231.3 bus2= MRT_477231TRF_1_3017A.3 linecode=LC_MRT_TRF_1_3017A_1 length=0.001 units=km
New Reactor.TRF_1_3017A_R phases=1 bus1=ET1_3017.4 R=15 X=0 basefreq=60
New Transformer.TRF_1_3026A phases=1 windings=3 buses=[MRT_620151TRF_1_3026A.3 ET1_3026.1.4 ET1_3026.4.2] conns=[Wye Wye Wye] kvs=[13.3367912182804 0.22 0.22] kvas=[25 25 25] %loadloss=1.56 %noloadloss=0.36
New Linecode.LC_MRT_TRF_1_3026A_1 nphases=1 basefreq=60 r1=15000 x1=0 units=km normamps=0
New Linecode.LC_MRT_TRF_1_3026A_2 nphases=2 basefreq=60 r1=15000 x1=0 units=km normamps=0
New Linecode.LC_MRT_TRF_1_3026A_3 nphases=3 basefreq=60 r1=15000 x1=0 units=km normamps=0
New Linecode.LC_MRT_TRF_1_3026A_4 nphases=4 basefreq=60 r1=15000 x1=0 units=km normamps=0
New Line.Resist_MTR_TRF_1_3026A phases=1 bus1=620151.3 bus2= MRT_620151TRF_1_3026A.3 linecode=LC_MRT_TRF_1_3026A_1 length=0.001 units=km
New Reactor.TRF_1_3026A_R phases=1 bus1=ET1_3026.4 R=15 X=0 basefreq=60
New Transformer.TRF_1_3061A phases=1 windings=3 buses=[MRT_111161TRF_1_3061A.2 ET1_3061.1.4 ET1_3061.4.2] conns=[Wye Wye Wye] kvs=[13.3367912182804 0.22 0.22] kvas=[5 5 5] %loadloss=2.1 %noloadloss=0.7
New Linecode.LC_MRT_TRF_1_3061A_1 nphases=1 basefreq=60 r1=15000 x1=0 units=km normamps=0
New Linecode.LC_MRT_TRF_1_3061A_2 nphases=2 basefreq=60 r1=15000 x1=0 units=km normamps=0
New Linecode.LC_MRT_TRF_1_3061A_3 nphases=3 basefreq=60 r1=15000 x1=0 units=km normamps=0
New Linecode.LC_MRT_TRF_1_3061A_4 nphases=4 basefreq=60 r1=15000 x1=0 units=km normamps=0
New Line.Resist_MTR_TRF_1_3061A phases=1 bus1=111161.2 bus2= MRT_111161TRF_1_3061A.2 linecode=LC_MRT_TRF_1_3061A_1 length=0.001 units=km
New Reactor.TRF_1_3061A_R phases=1 bus1=ET1_3061.4 R=15 X=0 basefreq=60
New Transformer.TRF_1_3092A phases=1 windings=3 buses=[MRT_628701TRF_1_3092A.3 ET1_3092.1.4 ET1_3092.4.2] conns=[Wye Wye Wye] kvs=[13.3367912182804 0.22 0.22] kvas=[15 15 15] %loadloss=1.766667 %noloadloss=0.433333
New Linecode.LC_MRT_TRF_1_3092A_1 nphases=1 basefreq=60 r1=15000 x1=0 units=km normamps=0
New Linecode.LC_MRT_TRF_1_3092A_2 nphases=2 basefreq=60 r1=15000 x1=0 units=km normamps=0
New Linecode.LC_MRT_TRF_1_3092A_3 nphases=3 basefreq=60 r1=15000 x1=0 units=km normamps=0
New Linecode.LC_MRT_TRF_1_3092A_4 nphases=4 basefreq=60 r1=15000 x1=0 units=km normamps=0
New Line.Resist_MTR_TRF_1_3092A phases=1 bus1=628701.3 bus2= MRT_628701TRF_1_3092A.3 linecode=LC_MRT_TRF_1_3092A_1 length=0.001 units=km
New Reactor.TRF_1_3092A_R phases=1 bus1=ET1_3092.4 R=15 X=0 basefreq=60
New Transformer.TRF_1_3098A phases=1 windings=3 buses=[MRT_586011TRF_1_3098A.3 ET1_3098.1.4 ET1_3098.4.2] conns=[Wye Wye Wye] kvs=[13.3367912182804 0.22 0.22] kvas=[25 25 25] %loadloss=1.56 %noloadloss=0.36
New Linecode.LC_MRT_TRF_1_3098A_1 nphases=1 basefreq=60 r1=15000 x1=0 units=km normamps=0
New Linecode.LC_MRT_TRF_1_3098A_2 nphases=2 basefreq=60 r1=15000 x1=0 units=km normamps=0
New Linecode.LC_MRT_TRF_1_3098A_3 nphases=3 basefreq=60 r1=15000 x1=0 units=km normamps=0
New Linecode.LC_MRT_TRF_1_3098A_4 nphases=4 basefreq=60 r1=15000 x1=0 units=km normamps=0
New Line.Resist_MTR_TRF_1_3098A phases=1 bus1=586011.3 bus2= MRT_586011TRF_1_3098A.3 linecode=LC_MRT_TRF_1_3098A_1 length=0.001 units=km
New Reactor.TRF_1_3098A_R phases=1 bus1=ET1_3098.4 R=15 X=0 basefreq=60
New Transformer.TRF_1_3118A phases=1 windings=3 buses=[MRT_270881TRF_1_3118A.2 ET1_3118.1.4 ET1_3118.4.2] conns=[Wye Wye Wye] kvs=[13.3367912182804 0.22 0.22] kvas=[37.5 37.5 37.5] %loadloss=1.413333 %noloadloss=0.36
New Linecode.LC_MRT_TRF_1_3118A_1 nphases=1 basefreq=60 r1=15000 x1=0 units=km normamps=0
New Linecode.LC_MRT_TRF_1_3118A_2 nphases=2 basefreq=60 r1=15000 x1=0 units=km normamps=0
New Linecode.LC_MRT_TRF_1_3118A_3 nphases=3 basefreq=60 r1=15000 x1=0 units=km normamps=0
New Linecode.LC_MRT_TRF_1_3118A_4 nphases=4 basefreq=60 r1=15000 x1=0 units=km normamps=0
New Line.Resist_MTR_TRF_1_3118A phases=1 bus1=270881.2 bus2= MRT_270881TRF_1_3118A.2 linecode=LC_MRT_TRF_1_3118A_1 length=0.001 units=km
New Reactor.TRF_1_3118A_R phases=1 bus1=ET1_3118.4 R=15 X=0 basefreq=60
New Transformer.TRF_1_3196A phases=1 windings=3 buses=[MRT_584331TRF_1_3196A.2 ET1_3196.1.4 ET1_3196.4.2] conns=[Wye Wye Wye] kvs=[13.3367912182804 0.22 0.22] kvas=[5 5 5] %loadloss=2.1 %noloadloss=0.7
New Linecode.LC_MRT_TRF_1_3196A_1 nphases=1 basefreq=60 r1=15000 x1=0 units=km normamps=0
New Linecode.LC_MRT_TRF_1_3196A_2 nphases=2 basefreq=60 r1=15000 x1=0 units=km normamps=0
New Linecode.LC_MRT_TRF_1_3196A_3 nphases=3 basefreq=60 r1=15000 x1=0 units=km normamps=0
New Linecode.LC_MRT_TRF_1_3196A_4 nphases=4 basefreq=60 r1=15000 x1=0 units=km normamps=0
New Line.Resist_MTR_TRF_1_3196A phases=1 bus1=584331.2 bus2= MRT_584331TRF_1_3196A.2 linecode=LC_MRT_TRF_1_3196A_1 length=0.001 units=km
New Reactor.TRF_1_3196A_R phases=1 bus1=ET1_3196.4 R=15 X=0 basefreq=60
New Transformer.TRF_1_3361A phases=1 windings=3 buses=[MRT_574131TRF_1_3361A.3 ET1_3361.1.4 ET1_3361.4.2] conns=[Wye Wye Wye] kvs=[13.3367912182804 0.22 0.22] kvas=[5 5 5] %loadloss=2.1 %noloadloss=0.7
New Linecode.LC_MRT_TRF_1_3361A_1 nphases=1 basefreq=60 r1=15000 x1=0 units=km normamps=0
New Linecode.LC_MRT_TRF_1_3361A_2 nphases=2 basefreq=60 r1=15000 x1=0 units=km normamps=0
New Linecode.LC_MRT_TRF_1_3361A_3 nphases=3 basefreq=60 r1=15000 x1=0 units=km normamps=0
New Linecode.LC_MRT_TRF_1_3361A_4 nphases=4 basefreq=60 r1=15000 x1=0 units=km normamps=0
New Line.Resist_MTR_TRF_1_3361A phases=1 bus1=574131.3 bus2= MRT_574131TRF_1_3361A.3 linecode=LC_MRT_TRF_1_3361A_1 length=0.001 units=km
New Reactor.TRF_1_3361A_R phases=1 bus1=ET1_3361.4 R=15 X=0 basefreq=60
New Transformer.TRF_1_3382A phases=1 windings=3 buses=[MRT_135851TRF_1_3382A.3 ET1_3382.1.4 ET1_3382.4.2] conns=[Wye Wye Wye] kvs=[13.3367912182804 0.22 0.22] kvas=[10 10 10] %loadloss=1.95 %noloadloss=0.5
New Linecode.LC_MRT_TRF_1_3382A_1 nphases=1 basefreq=60 r1=15000 x1=0 units=km normamps=0
New Linecode.LC_MRT_TRF_1_3382A_2 nphases=2 basefreq=60 r1=15000 x1=0 units=km normamps=0
New Linecode.LC_MRT_TRF_1_3382A_3 nphases=3 basefreq=60 r1=15000 x1=0 units=km normamps=0
New Linecode.LC_MRT_TRF_1_3382A_4 nphases=4 basefreq=60 r1=15000 x1=0 units=km normamps=0
New Line.Resist_MTR_TRF_1_3382A phases=1 bus1=135851.3 bus2= MRT_135851TRF_1_3382A.3 linecode=LC_MRT_TRF_1_3382A_1 length=0.001 units=km
New Reactor.TRF_1_3382A_R phases=1 bus1=ET1_3382.4 R=15 X=0 basefreq=60
New Transformer.TRF_1_3429A phases=1 windings=3 buses=[MRT_201251TRF_1_3429A.2 ET1_3429.1.4 ET1_3429.4.2] conns=[Wye Wye Wye] kvs=[13.3367912182804 0.22 0.22] kvas=[15 15 15] %loadloss=1.766667 %noloadloss=0.433333
New Linecode.LC_MRT_TRF_1_3429A_1 nphases=1 basefreq=60 r1=15000 x1=0 units=km normamps=0
New Linecode.LC_MRT_TRF_1_3429A_2 nphases=2 basefreq=60 r1=15000 x1=0 units=km normamps=0
New Linecode.LC_MRT_TRF_1_3429A_3 nphases=3 basefreq=60 r1=15000 x1=0 units=km normamps=0
New Linecode.LC_MRT_TRF_1_3429A_4 nphases=4 basefreq=60 r1=15000 x1=0 units=km normamps=0
New Line.Resist_MTR_TRF_1_3429A phases=1 bus1=201251.2 bus2= MRT_201251TRF_1_3429A.2 linecode=LC_MRT_TRF_1_3429A_1 length=0.001 units=km
New Reactor.TRF_1_3429A_R phases=1 bus1=ET1_3429.4 R=15 X=0 basefreq=60
New Transformer.TRF_1_3454A phases=1 windings=3 buses=[MRT_623501TRF_1_3454A.2 ET1_3454.1.4 ET1_3454.4.2] conns=[Wye Wye Wye] kvs=[13.3367912182804 0.22 0.22] kvas=[15 15 15] %loadloss=1.766667 %noloadloss=0.433333
New Linecode.LC_MRT_TRF_1_3454A_1 nphases=1 basefreq=60 r1=15000 x1=0 units=km normamps=0
New Linecode.LC_MRT_TRF_1_3454A_2 nphases=2 basefreq=60 r1=15000 x1=0 units=km normamps=0
New Linecode.LC_MRT_TRF_1_3454A_3 nphases=3 basefreq=60 r1=15000 x1=0 units=km normamps=0
New Linecode.LC_MRT_TRF_1_3454A_4 nphases=4 basefreq=60 r1=15000 x1=0 units=km normamps=0
New Line.Resist_MTR_TRF_1_3454A phases=1 bus1=623501.2 bus2= MRT_623501TRF_1_3454A.2 linecode=LC_MRT_TRF_1_3454A_1 length=0.001 units=km
New Reactor.TRF_1_3454A_R phases=1 bus1=ET1_3454.4 R=15 X=0 basefreq=60
New Transformer.TRF_1_3455A phases=1 windings=3 buses=[MRT_77671TRF_1_3455A.3 ET1_3455.1.4 ET1_3455.4.2] conns=[Wye Wye Wye] kvs=[13.3367912182804 0.22 0.22] kvas=[5 5 5] %loadloss=2.1 %noloadloss=0.7
New Linecode.LC_MRT_TRF_1_3455A_1 nphases=1 basefreq=60 r1=15000 x1=0 units=km normamps=0
New Linecode.LC_MRT_TRF_1_3455A_2 nphases=2 basefreq=60 r1=15000 x1=0 units=km normamps=0
New Linecode.LC_MRT_TRF_1_3455A_3 nphases=3 basefreq=60 r1=15000 x1=0 units=km normamps=0
New Linecode.LC_MRT_TRF_1_3455A_4 nphases=4 basefreq=60 r1=15000 x1=0 units=km normamps=0
New Line.Resist_MTR_TRF_1_3455A phases=1 bus1=77671.3 bus2= MRT_77671TRF_1_3455A.3 linecode=LC_MRT_TRF_1_3455A_1 length=0.001 units=km
New Reactor.TRF_1_3455A_R phases=1 bus1=ET1_3455.4 R=15 X=0 basefreq=60
New Transformer.TRF_1_3456A phases=1 windings=3 buses=[MRT_8081TRF_1_3456A.2 ET1_3456.1.4 ET1_3456.4.2] conns=[Wye Wye Wye] kvs=[13.3367912182804 0.22 0.22] kvas=[15 15 15] %loadloss=1.766667 %noloadloss=0.433333
New Linecode.LC_MRT_TRF_1_3456A_1 nphases=1 basefreq=60 r1=15000 x1=0 units=km normamps=0
New Linecode.LC_MRT_TRF_1_3456A_2 nphases=2 basefreq=60 r1=15000 x1=0 units=km normamps=0
New Linecode.LC_MRT_TRF_1_3456A_3 nphases=3 basefreq=60 r1=15000 x1=0 units=km normamps=0
New Linecode.LC_MRT_TRF_1_3456A_4 nphases=4 basefreq=60 r1=15000 x1=0 units=km normamps=0
New Line.Resist_MTR_TRF_1_3456A phases=1 bus1=8081.2 bus2= MRT_8081TRF_1_3456A.2 linecode=LC_MRT_TRF_1_3456A_1 length=0.001 units=km
New Reactor.TRF_1_3456A_R phases=1 bus1=ET1_3456.4 R=15 X=0 basefreq=60
New Transformer.TRF_1_3494A phases=3 windings=2 buses=[110981.1.2.3 ET1_3494.1.2.3.4] conns=[Delta Wye] kvs=[23.1 0.38] kvas=[30 30] %loadloss=2.1 %noloadloss=0.533333
New Reactor.TRF_1_3494A_R phases=1 bus1=ET1_3494.4 R=15 X=0 basefreq=60
New Transformer.TRF_1_3550A phases=3 windings=2 buses=[425661.1.2.3 ET1_3550.1.2.3.4] conns=[Delta Wye] kvs=[23.1 0.38] kvas=[15 15] %loadloss=2.5 %noloadloss=0.633333
New Reactor.TRF_1_3550A_R phases=1 bus1=ET1_3550.4 R=15 X=0 basefreq=60
New Transformer.TRF_1_3647A phases=1 windings=2 buses=[MRT_624201TRF_1_3647A.2 ET1_3647.1.4] conns=[Wye Wye] kvs=[13.3367912182804 0.22] kvas=[5 5] %loadloss=2.1 %noloadloss=0.7
New Linecode.LC_MRT_TRF_1_3647A_1 nphases=1 basefreq=60 r1=15000 x1=0 units=km normamps=0
New Linecode.LC_MRT_TRF_1_3647A_2 nphases=2 basefreq=60 r1=15000 x1=0 units=km normamps=0
New Linecode.LC_MRT_TRF_1_3647A_3 nphases=3 basefreq=60 r1=15000 x1=0 units=km normamps=0
New Linecode.LC_MRT_TRF_1_3647A_4 nphases=4 basefreq=60 r1=15000 x1=0 units=km normamps=0
New Line.Resist_MTR_TRF_1_3647A phases=1 bus1=624201.2 bus2= MRT_624201TRF_1_3647A.2 linecode=LC_MRT_TRF_1_3647A_1 length=0.001 units=km
New Reactor.TRF_1_3647A_R phases=1 bus1=ET1_3647.4 R=15 X=0 basefreq=60
New Transformer.TRF_1_3651A phases=1 windings=2 buses=[MRT_625631TRF_1_3651A.3 ET1_3651.1.4] conns=[Wye Wye] kvs=[13.3367912182804 0.22] kvas=[5 5] %loadloss=2.1 %noloadloss=0.7
New Linecode.LC_MRT_TRF_1_3651A_1 nphases=1 basefreq=60 r1=15000 x1=0 units=km normamps=0
New Linecode.LC_MRT_TRF_1_3651A_2 nphases=2 basefreq=60 r1=15000 x1=0 units=km normamps=0
New Linecode.LC_MRT_TRF_1_3651A_3 nphases=3 basefreq=60 r1=15000 x1=0 units=km normamps=0
New Linecode.LC_MRT_TRF_1_3651A_4 nphases=4 basefreq=60 r1=15000 x1=0 units=km normamps=0
New Line.Resist_MTR_TRF_1_3651A phases=1 bus1=625631.3 bus2= MRT_625631TRF_1_3651A.3 linecode=LC_MRT_TRF_1_3651A_1 length=0.001 units=km
New Reactor.TRF_1_3651A_R phases=1 bus1=ET1_3651.4 R=15 X=0 basefreq=60
New Transformer.TRF_1_3777A phases=1 windings=3 buses=[MRT_636651TRF_1_3777A.3 ET1_3777.1.4 ET1_3777.4.2] conns=[Wye Wye Wye] kvs=[13.3367912182804 0.22 0.22] kvas=[15 15 15] %loadloss=1.766667 %noloadloss=0.433333
New Linecode.LC_MRT_TRF_1_3777A_1 nphases=1 basefreq=60 r1=15000 x1=0 units=km normamps=0
New Linecode.LC_MRT_TRF_1_3777A_2 nphases=2 basefreq=60 r1=15000 x1=0 units=km normamps=0
New Linecode.LC_MRT_TRF_1_3777A_3 nphases=3 basefreq=60 r1=15000 x1=0 units=km normamps=0
New Linecode.LC_MRT_TRF_1_3777A_4 nphases=4 basefreq=60 r1=15000 x1=0 units=km normamps=0
New Line.Resist_MTR_TRF_1_3777A phases=1 bus1=636651.3 bus2= MRT_636651TRF_1_3777A.3 linecode=LC_MRT_TRF_1_3777A_1 length=0.001 units=km
New Reactor.TRF_1_3777A_R phases=1 bus1=ET1_3777.4 R=15 X=0 basefreq=60
New Transformer.TRF_1_3812A phases=1 windings=2 buses=[MRT_78731TRF_1_3812A.3 ET1_3812.1.4] conns=[Wye Wye] kvs=[13.3367912182804 0.22] kvas=[5 5] %loadloss=2.1 %noloadloss=0.7
New Linecode.LC_MRT_TRF_1_3812A_1 nphases=1 basefreq=60 r1=15000 x1=0 units=km normamps=0
New Linecode.LC_MRT_TRF_1_3812A_2 nphases=2 basefreq=60 r1=15000 x1=0 units=km normamps=0
New Linecode.LC_MRT_TRF_1_3812A_3 nphases=3 basefreq=60 r1=15000 x1=0 units=km normamps=0
New Linecode.LC_MRT_TRF_1_3812A_4 nphases=4 basefreq=60 r1=15000 x1=0 units=km normamps=0
New Line.Resist_MTR_TRF_1_3812A phases=1 bus1=78731.3 bus2= MRT_78731TRF_1_3812A.3 linecode=LC_MRT_TRF_1_3812A_1 length=0.001 units=km
New Reactor.TRF_1_3812A_R phases=1 bus1=ET1_3812.4 R=15 X=0 basefreq=60
New Transformer.TRF_1_3886A phases=1 windings=3 buses=[MRT_645901TRF_1_3886A.2 ET1_3886.1.4 ET1_3886.4.2] conns=[Wye Wye Wye] kvs=[13.3367912182804 0.22 0.22] kvas=[10 10 10] %loadloss=1.95 %noloadloss=0.5
New Linecode.LC_MRT_TRF_1_3886A_1 nphases=1 basefreq=60 r1=15000 x1=0 units=km normamps=0
New Linecode.LC_MRT_TRF_1_3886A_2 nphases=2 basefreq=60 r1=15000 x1=0 units=km normamps=0
New Linecode.LC_MRT_TRF_1_3886A_3 nphases=3 basefreq=60 r1=15000 x1=0 units=km normamps=0
New Linecode.LC_MRT_TRF_1_3886A_4 nphases=4 basefreq=60 r1=15000 x1=0 units=km normamps=0
New Line.Resist_MTR_TRF_1_3886A phases=1 bus1=645901.2 bus2= MRT_645901TRF_1_3886A.2 linecode=LC_MRT_TRF_1_3886A_1 length=0.001 units=km
New Reactor.TRF_1_3886A_R phases=1 bus1=ET1_3886.4 R=15 X=0 basefreq=60
New Transformer.TRF_1_3970A phases=1 windings=3 buses=[MRT_76071TRF_1_3970A.3 ET1_3970.1.4 ET1_3970.4.2] conns=[Wye Wye Wye] kvs=[13.3367912182804 0.22 0.22] kvas=[15 15 15] %loadloss=1.766667 %noloadloss=0.433333
New Linecode.LC_MRT_TRF_1_3970A_1 nphases=1 basefreq=60 r1=15000 x1=0 units=km normamps=0
New Linecode.LC_MRT_TRF_1_3970A_2 nphases=2 basefreq=60 r1=15000 x1=0 units=km normamps=0
New Linecode.LC_MRT_TRF_1_3970A_3 nphases=3 basefreq=60 r1=15000 x1=0 units=km normamps=0
New Linecode.LC_MRT_TRF_1_3970A_4 nphases=4 basefreq=60 r1=15000 x1=0 units=km normamps=0
New Line.Resist_MTR_TRF_1_3970A phases=1 bus1=76071.3 bus2= MRT_76071TRF_1_3970A.3 linecode=LC_MRT_TRF_1_3970A_1 length=0.001 units=km
New Reactor.TRF_1_3970A_R phases=1 bus1=ET1_3970.4 R=15 X=0 basefreq=60
New Transformer.TRF_1_3974A phases=3 windings=2 buses=[641451.1.2.3 ET1_3974.1.2.3.4] conns=[Delta Wye] kvs=[23.1 0.38] kvas=[15 15] %loadloss=2.5 %noloadloss=0.633333
New Reactor.TRF_1_3974A_R phases=1 bus1=ET1_3974.4 R=15 X=0 basefreq=60
New Transformer.TRF_1_4008A phases=3 windings=2 buses=[77731.1.2.3 ET1_4008.1.2.3.4] conns=[Delta Wye] kvs=[23.1 0.38] kvas=[30 30] %loadloss=2.1 %noloadloss=0.533333
New Reactor.TRF_1_4008A_R phases=1 bus1=ET1_4008.4 R=15 X=0 basefreq=60
New Transformer.TRF_1_4110A phases=1 windings=3 buses=[MRT_345271TRF_1_4110A.3 ET1_4110.1.4 ET1_4110.4.2] conns=[Wye Wye Wye] kvs=[13.3367912182804 0.22 0.22] kvas=[15 15 15] %loadloss=1.766667 %noloadloss=0.433333
New Linecode.LC_MRT_TRF_1_4110A_1 nphases=1 basefreq=60 r1=15000 x1=0 units=km normamps=0
New Linecode.LC_MRT_TRF_1_4110A_2 nphases=2 basefreq=60 r1=15000 x1=0 units=km normamps=0
New Linecode.LC_MRT_TRF_1_4110A_3 nphases=3 basefreq=60 r1=15000 x1=0 units=km normamps=0
New Linecode.LC_MRT_TRF_1_4110A_4 nphases=4 basefreq=60 r1=15000 x1=0 units=km normamps=0
New Line.Resist_MTR_TRF_1_4110A phases=1 bus1=345271.3 bus2= MRT_345271TRF_1_4110A.3 linecode=LC_MRT_TRF_1_4110A_1 length=0.001 units=km
New Reactor.TRF_1_4110A_R phases=1 bus1=ET1_4110.4 R=15 X=0 basefreq=60
New Transformer.TRF_1_4111A phases=1 windings=3 buses=[MRT_650631TRF_1_4111A.2 ET1_4111.1.4 ET1_4111.4.2] conns=[Wye Wye Wye] kvs=[13.3367912182804 0.22 0.22] kvas=[10 10 10] %loadloss=1.95 %noloadloss=0.5
New Linecode.LC_MRT_TRF_1_4111A_1 nphases=1 basefreq=60 r1=15000 x1=0 units=km normamps=0
New Linecode.LC_MRT_TRF_1_4111A_2 nphases=2 basefreq=60 r1=15000 x1=0 units=km normamps=0
New Linecode.LC_MRT_TRF_1_4111A_3 nphases=3 basefreq=60 r1=15000 x1=0 units=km normamps=0
New Linecode.LC_MRT_TRF_1_4111A_4 nphases=4 basefreq=60 r1=15000 x1=0 units=km normamps=0
New Line.Resist_MTR_TRF_1_4111A phases=1 bus1=650631.2 bus2= MRT_650631TRF_1_4111A.2 linecode=LC_MRT_TRF_1_4111A_1 length=0.001 units=km
New Reactor.TRF_1_4111A_R phases=1 bus1=ET1_4111.4 R=15 X=0 basefreq=60
New Transformer.TRF_1_4112A phases=1 windings=3 buses=[MRT_201371TRF_1_4112A.2 ET1_4112.1.4 ET1_4112.4.2] conns=[Wye Wye Wye] kvs=[13.3367912182804 0.22 0.22] kvas=[10 10 10] %loadloss=1.95 %noloadloss=0.5
New Linecode.LC_MRT_TRF_1_4112A_1 nphases=1 basefreq=60 r1=15000 x1=0 units=km normamps=0
New Linecode.LC_MRT_TRF_1_4112A_2 nphases=2 basefreq=60 r1=15000 x1=0 units=km normamps=0
New Linecode.LC_MRT_TRF_1_4112A_3 nphases=3 basefreq=60 r1=15000 x1=0 units=km normamps=0
New Linecode.LC_MRT_TRF_1_4112A_4 nphases=4 basefreq=60 r1=15000 x1=0 units=km normamps=0
New Line.Resist_MTR_TRF_1_4112A phases=1 bus1=201371.2 bus2= MRT_201371TRF_1_4112A.2 linecode=LC_MRT_TRF_1_4112A_1 length=0.001 units=km
New Reactor.TRF_1_4112A_R phases=1 bus1=ET1_4112.4 R=15 X=0 basefreq=60
New Transformer.TRF_1_4209A phases=3 windings=2 buses=[568171.1.2.3 ET1_4209.1.2.3.4] conns=[Delta Wye] kvs=[23.1 0.38] kvas=[30 30] %loadloss=2.1 %noloadloss=0.533333
New Reactor.TRF_1_4209A_R phases=1 bus1=ET1_4209.4 R=15 X=0 basefreq=60
New Transformer.TRF_1_4237A phases=1 windings=3 buses=[MRT_270641TRF_1_4237A.1 ET1_4237.1.4 ET1_4237.4.2] conns=[Wye Wye Wye] kvs=[13.3367912182804 0.22 0.22] kvas=[10 10 10] %loadloss=1.95 %noloadloss=0.5
New Linecode.LC_MRT_TRF_1_4237A_1 nphases=1 basefreq=60 r1=15000 x1=0 units=km normamps=0
New Linecode.LC_MRT_TRF_1_4237A_2 nphases=2 basefreq=60 r1=15000 x1=0 units=km normamps=0
New Linecode.LC_MRT_TRF_1_4237A_3 nphases=3 basefreq=60 r1=15000 x1=0 units=km normamps=0
New Linecode.LC_MRT_TRF_1_4237A_4 nphases=4 basefreq=60 r1=15000 x1=0 units=km normamps=0
New Line.Resist_MTR_TRF_1_4237A phases=1 bus1=270641.1 bus2= MRT_270641TRF_1_4237A.1 linecode=LC_MRT_TRF_1_4237A_1 length=0.001 units=km
New Reactor.TRF_1_4237A_R phases=1 bus1=ET1_4237.4 R=15 X=0 basefreq=60
New Transformer.TRF_1_4279A phases=1 windings=3 buses=[MRT_615621TRF_1_4279A.1 ET1_4279.1.4 ET1_4279.4.2] conns=[Wye Wye Wye] kvs=[13.3367912182804 0.22 0.22] kvas=[10 10 10] %loadloss=1.95 %noloadloss=0.5
New Linecode.LC_MRT_TRF_1_4279A_1 nphases=1 basefreq=60 r1=15000 x1=0 units=km normamps=0
New Linecode.LC_MRT_TRF_1_4279A_2 nphases=2 basefreq=60 r1=15000 x1=0 units=km normamps=0
New Linecode.LC_MRT_TRF_1_4279A_3 nphases=3 basefreq=60 r1=15000 x1=0 units=km normamps=0
New Linecode.LC_MRT_TRF_1_4279A_4 nphases=4 basefreq=60 r1=15000 x1=0 units=km normamps=0
New Line.Resist_MTR_TRF_1_4279A phases=1 bus1=615621.1 bus2= MRT_615621TRF_1_4279A.1 linecode=LC_MRT_TRF_1_4279A_1 length=0.001 units=km
New Reactor.TRF_1_4279A_R phases=1 bus1=ET1_4279.4 R=15 X=0 basefreq=60
New Transformer.TRF_1_4281A phases=3 windings=2 buses=[615721.1.2.3 ET1_4281.1.2.3.4] conns=[Delta Wye] kvs=[23.1 0.38] kvas=[15 15] %loadloss=2.5 %noloadloss=0.633333
New Reactor.TRF_1_4281A_R phases=1 bus1=ET1_4281.4 R=15 X=0 basefreq=60
New Transformer.TRF_1_4282A phases=1 windings=3 buses=[MRT_771431TRF_1_4282A.2 ET1_4282.1.4 ET1_4282.4.2] conns=[Wye Wye Wye] kvs=[13.3367912182804 0.22 0.22] kvas=[10 10 10] %loadloss=1.95 %noloadloss=0.5
New Linecode.LC_MRT_TRF_1_4282A_1 nphases=1 basefreq=60 r1=15000 x1=0 units=km normamps=0
New Linecode.LC_MRT_TRF_1_4282A_2 nphases=2 basefreq=60 r1=15000 x1=0 units=km normamps=0
New Linecode.LC_MRT_TRF_1_4282A_3 nphases=3 basefreq=60 r1=15000 x1=0 units=km normamps=0
New Linecode.LC_MRT_TRF_1_4282A_4 nphases=4 basefreq=60 r1=15000 x1=0 units=km normamps=0
New Line.Resist_MTR_TRF_1_4282A phases=1 bus1=771431.2 bus2= MRT_771431TRF_1_4282A.2 linecode=LC_MRT_TRF_1_4282A_1 length=0.001 units=km
New Reactor.TRF_1_4282A_R phases=1 bus1=ET1_4282.4 R=15 X=0 basefreq=60
New Transformer.TRF_1_4283A phases=3 windings=2 buses=[234981.1.2.3 ET1_4283.1.2.3.4] conns=[Delta Wye] kvs=[23.1 0.38] kvas=[45 45] %loadloss=1.866667 %noloadloss=0.477777
New Reactor.TRF_1_4283A_R phases=1 bus1=ET1_4283.4 R=15 X=0 basefreq=60
New Transformer.TRF_1_4302A phases=1 windings=3 buses=[MRT_551241TRF_1_4302A.3 ET1_4302.1.4 ET1_4302.4.2] conns=[Wye Wye Wye] kvs=[13.3367912182804 0.22 0.22] kvas=[15 15 15] %loadloss=1.766667 %noloadloss=0.433333
New Linecode.LC_MRT_TRF_1_4302A_1 nphases=1 basefreq=60 r1=15000 x1=0 units=km normamps=0
New Linecode.LC_MRT_TRF_1_4302A_2 nphases=2 basefreq=60 r1=15000 x1=0 units=km normamps=0
New Linecode.LC_MRT_TRF_1_4302A_3 nphases=3 basefreq=60 r1=15000 x1=0 units=km normamps=0
New Linecode.LC_MRT_TRF_1_4302A_4 nphases=4 basefreq=60 r1=15000 x1=0 units=km normamps=0
New Line.Resist_MTR_TRF_1_4302A phases=1 bus1=551241.3 bus2= MRT_551241TRF_1_4302A.3 linecode=LC_MRT_TRF_1_4302A_1 length=0.001 units=km
New Reactor.TRF_1_4302A_R phases=1 bus1=ET1_4302.4 R=15 X=0 basefreq=60
New Transformer.TRF_1_4325A phases=1 windings=3 buses=[MRT_771481TRF_1_4325A.2 ET1_4325.1.4 ET1_4325.4.2] conns=[Wye Wye Wye] kvs=[13.3367912182804 0.22 0.22] kvas=[15 15 15] %loadloss=1.766667 %noloadloss=0.433333
New Linecode.LC_MRT_TRF_1_4325A_1 nphases=1 basefreq=60 r1=15000 x1=0 units=km normamps=0
New Linecode.LC_MRT_TRF_1_4325A_2 nphases=2 basefreq=60 r1=15000 x1=0 units=km normamps=0
New Linecode.LC_MRT_TRF_1_4325A_3 nphases=3 basefreq=60 r1=15000 x1=0 units=km normamps=0
New Linecode.LC_MRT_TRF_1_4325A_4 nphases=4 basefreq=60 r1=15000 x1=0 units=km normamps=0
New Line.Resist_MTR_TRF_1_4325A phases=1 bus1=771481.2 bus2= MRT_771481TRF_1_4325A.2 linecode=LC_MRT_TRF_1_4325A_1 length=0.001 units=km
New Reactor.TRF_1_4325A_R phases=1 bus1=ET1_4325.4 R=15 X=0 basefreq=60
New Transformer.TRF_1_4351A phases=1 windings=3 buses=[MRT_600391TRF_1_4351A.3 ET1_4351.1.4 ET1_4351.4.2] conns=[Wye Wye Wye] kvs=[13.3367912182804 0.22 0.22] kvas=[15 15 15] %loadloss=1.766667 %noloadloss=0.433333
New Linecode.LC_MRT_TRF_1_4351A_1 nphases=1 basefreq=60 r1=15000 x1=0 units=km normamps=0
New Linecode.LC_MRT_TRF_1_4351A_2 nphases=2 basefreq=60 r1=15000 x1=0 units=km normamps=0
New Linecode.LC_MRT_TRF_1_4351A_3 nphases=3 basefreq=60 r1=15000 x1=0 units=km normamps=0
New Linecode.LC_MRT_TRF_1_4351A_4 nphases=4 basefreq=60 r1=15000 x1=0 units=km normamps=0
New Line.Resist_MTR_TRF_1_4351A phases=1 bus1=600391.3 bus2= MRT_600391TRF_1_4351A.3 linecode=LC_MRT_TRF_1_4351A_1 length=0.001 units=km
New Reactor.TRF_1_4351A_R phases=1 bus1=ET1_4351.4 R=15 X=0 basefreq=60
New Transformer.TRF_1_4354A phases=3 windings=2 buses=[785941.1.2.3 ET1_4354.1.2.3.4] conns=[Delta Wye] kvs=[23.1 0.38] kvas=[75 75] %loadloss=3.84 %noloadloss=0.966666
New Reactor.TRF_1_4354A_R phases=1 bus1=ET1_4354.4 R=15 X=0 basefreq=60
New Transformer.TRF_1_4390A phases=1 windings=3 buses=[MRT_662341TRF_1_4390A.3 ET1_4390.1.4 ET1_4390.4.2] conns=[Wye Wye Wye] kvs=[13.3367912182804 0.22 0.22] kvas=[10 10 10] %loadloss=1.95 %noloadloss=0.5
...